<?xml version="1.0" encoding="utf-8"?>
<!DOCTYPE population SYSTEM "http://www.matsim.org/files/dtd/population_v6.dtd">

<population>



<!-- ====================================================================== -->

	<person id="person0">
		<plan selected="yes">
			<activity type="home" link="a" end_time="0:00:07" >
			</activity>
			<leg mode="car" dep_time="00:00:07" trav_time="00:02:18">
				<route type="links" start_link="a" end_link="e" trav_time="00:02:18" distance="660">a b c d e f g h</route>
			</leg>
			<activity type="work" link="h" end_time="00:3:00" >
			</activity>
		</plan>

	</person>	
	<person id="person1">
		<plan selected="yes">
			<activity type="home" link="a" end_time="0:00:17" >
			</activity>
			<leg mode="car" dep_time="00:00:17" trav_time="00:02:18">
				<route type="links" start_link="a" end_link="e" trav_time="00:02:18" distance="660">a b c d e f g h</route>
			</leg>
			<activity type="work" link="h" end_time="00:3:00" >
			</activity>
		</plan>

	</person>	
	<person id="person2">
		<plan selected="yes">
			<activity type="home" link="a" end_time="0:00:27" >
			</activity>
			<leg mode="car" dep_time="00:00:27" trav_time="00:02:18">
				<route type="links" start_link="a" end_link="e" trav_time="00:02:18" distance="660">a b c d e f g h</route>
			</leg>
			<activity type="work" link="h" end_time="00:3:00" >
			</activity>
		</plan>

	</person>	
	<person id="person3">
		<plan selected="yes">
			<activity type="home" link="a" end_time="0:00:29" >
			</activity>
			<leg mode="car" dep_time="00:00:29" trav_time="00:02:18">
				<route type="links" start_link="a" end_link="e" trav_time="00:02:18" distance="660">a b c d e f g h</route>
			</leg>
			<activity type="work" link="h" end_time="00:3:00" >
			</activity>
		</plan>

	</person>	

<!-- ====================================================================== -->

</population>
