<?xml version="1.0"?>
<routes>
   <vType id="vtype0" accel="2.6" decel="4.5" sigma="0.1" length="5" minGap="5" maxSpeed="55.55" color="1,1,0" carFollowModel="Krauss" speedDev="0" />
</routes>
